/*--------------------------------*- C++ -*----------------------------------*\
| =========                 |                                                 |
| \\      /  F ield         | OpenFOAM: The Open Source CFD Toolbox           |
|  \\    /   O peration     | Version:  v2012                                 |
|   \\  /    A nd           | Website:  www.openfoam.com                      |
|    \\/     M anipulation  |                                                 |
\*---------------------------------------------------------------------------*/
FoamFile
{
    version     2.0;
    format      ascii;
    class       polyBoundaryMesh;
    location    "constant/polyMesh";
    object      boundary;
}
// * * * * * * * * * * * * * * * * * * * * * * * * * * * * * * * * * * * * * //

4
(
    zeroGradientPlanes
    {
        type            patch;
        nFaces          160;
        startFace       4660;
    }
    inlet
    {
        type            patch;
        nFaces          20;
        startFace       4820;
    }
    plate
    {
        type            wall;
        inGroups        1(wall);
        nFaces          100;
        startFace       4840;
    }
    frontAndBack
    {
        type            empty;
        inGroups        1(empty);
        nFaces          4800;
        startFace       4940;
    }
)

// ************************************************************************* //
